ROOT
ATOM      2  C1  UNL A   1       2.947   0.580  -2.383  1.00  0.00    +0.000 C 
ATOM      3  N2  UNL A   1       3.605   0.222  -1.299  1.00  0.00    +0.000 N 
ATOM      4  C2  UNL A   1       2.856  -0.073  -0.234  1.00  0.00    +0.000 C 
ATOM     11  N4  UNL A   1       1.524  -0.010  -0.220  1.00  0.00    +0.000 N 
ATOM     12  C8  UNL A   1       0.951   0.365  -1.369  1.00  0.00    +0.000 C 
ATOM     13  N5  UNL A   1      -0.489   0.431  -1.408  1.00  0.00    +0.000 N 
ATOM     14  N6  UNL A   1      -1.238   0.147  -0.301  1.00  0.00    +0.000 N 
ATOM     15  C9  UNL A   1      -2.515   0.321  -0.672  1.00  0.00    +0.000 C 
ATOM     16  C10 UNL A   1      -3.619   0.119   0.273  1.00  0.00    +0.000 C 
ATOM     17  C11 UNL A   1      -3.432  -0.657   1.428  1.00  0.00    +0.000 C 
ATOM     18  C12 UNL A   1      -4.480  -0.859   2.331  1.00  0.00    +0.000 C 
ATOM     19  C13 UNL A   1      -5.727  -0.287   2.091  1.00  0.00    +0.000 C 
ATOM     20  C14 UNL A   1      -5.927   0.492   0.953  1.00  0.00    +0.000 C 
ATOM     21  C15 UNL A   1      -4.880   0.693   0.049  1.00  0.00    +0.000 C 
ATOM     22  C16 UNL A   1      -2.595   0.693  -2.038  1.00  0.00    +0.000 C 
ATOM     23  C17 UNL A   1      -1.302   0.757  -2.497  1.00  0.00    +0.000 C 
ATOM     25  N8  UNL A   1       1.632   0.685  -2.479  1.00  0.00    +0.000 N 
ATOM     26  O1  UNL A   1       1.136   1.174  -0.685  1.00  0.00    +0.000 O 
ATOM     27  C18 UNL A   1       0.563   0.203  -0.205  1.00  0.00    +0.000 C 
ATOM     28  O2  UNL A   1       1.275  -0.936   0.003  1.00  0.00    +0.000 O 
ATOM     29  C19 UNL A   1      -0.913   0.099   0.194  1.00  0.00    +0.000 C 
ATOM     30  F1  UNL A   1      -1.071  -0.286   1.493  1.00  0.00    +0.000 F 
ATOM     31  F2  UNL A   1      -1.590  -0.814  -0.560  1.00  0.00    +0.000 F 
ATOM     32  F3  UNL A   1      -1.583   1.277   0.061  1.00  0.00    +0.000 F 
ATOM     33  O3  UNL A   1       0.989   1.457   0.162  1.00  0.00    +0.000 O 
ATOM     34  C20 UNL A   1       0.537   0.321   0.088  1.00  0.00    +0.000 C 
ATOM     35  O4  UNL A   1       1.371  -0.726   0.320  1.00  0.00    +0.000 O 
ATOM     36  C21 UNL A   1      -0.913  -0.082  -0.200  1.00  0.00    +0.000 C 
ATOM     37  F4  UNL A   1      -1.593  -0.393   0.941  1.00  0.00    +0.000 F 
ATOM     38  F5  UNL A   1      -1.625   0.907  -0.811  1.00  0.00    +0.000 F 
ATOM     39  F6  UNL A   1      -1.006  -1.174  -1.011  1.00  0.00    +0.000 F 
ATOM     40  O5  UNL A   1       1.076   1.402  -0.107  1.00  0.00    +0.000 O 
ATOM     41  C22 UNL A   1       0.559   0.296   0.000  1.00  0.00    +0.000 C 
ATOM     42  O6  UNL A   1       1.355  -0.770   0.271  1.00  0.00    +0.000 O 
ATOM     43  C23 UNL A   1      -0.932  -0.045  -0.099  1.00  0.00    +0.000 C 
ATOM     44  F7  UNL A   1      -1.167  -1.154  -0.856  1.00  0.00    +0.000 F 
ATOM     45  F8  UNL A   1      -1.482  -0.291   1.123  1.00  0.00    +0.000 F 
ATOM     46  F9  UNL A   1      -1.669   0.957  -0.655  1.00  0.00    +0.000 F 
ATOM     47  O7  UNL A   1       1.194   1.168  -0.586  1.00  0.00    +0.000 O 
ATOM     48  C24 UNL A   1       0.581   0.232  -0.086  1.00  0.00    +0.000 C 
ATOM     49  O8  UNL A   1       1.281  -0.711   0.597  1.00  0.00    +0.000 O 
ATOM     50  C25 UNL A   1      -0.931  -0.006  -0.111  1.00  0.00    +0.000 C 
ATOM     51  F10 UNL A   1      -1.505   0.206   1.107  1.00  0.00    +0.000 F 
ATOM     52  F11 UNL A   1      -1.582   0.810  -0.987  1.00  0.00    +0.000 F 
ATOM     53  F12 UNL A   1      -1.254  -1.281  -0.468  1.00  0.00    +0.000 F 
ATOM     54  O9  UNL A   1       1.036   1.238  -0.725  1.00  0.00    +0.000 O 
ATOM     55  C26 UNL A   1       0.547   0.243  -0.203  1.00  0.00    +0.000 C 
ATOM     56  O10 UNL A   1       1.374  -0.769   0.168  1.00  0.00    +0.000 O 
ATOM     57  C27 UNL A   1      -0.930   0.000   0.126  1.00  0.00    +0.000 C 
ATOM     58  F13 UNL A   1      -1.186   0.134   1.458  1.00  0.00    +0.000 F 
ATOM     59  F14 UNL A   1      -1.345  -1.252  -0.219  1.00  0.00    +0.000 F 
ATOM     60  F15 UNL A   1      -1.764   0.868  -0.513  1.00  0.00    +0.000 F 
ATOM     61  O11 UNL A   1       1.001   1.459   0.048  1.00  0.00    +0.000 O 
ATOM     62  C28 UNL A   1       0.543   0.324  -0.010  1.00  0.00    +0.000 C 
ATOM     63  O12 UNL A   1       1.405  -0.723  -0.086  1.00  0.00    +0.000 O 
ATOM     64  C29 UNL A   1      -0.934  -0.082   0.022  1.00  0.00    +0.000 C 
ATOM     65  F16 UNL A   1      -1.241  -1.023  -0.916  1.00  0.00    +0.000 F 
ATOM     66  F17 UNL A   1      -1.777   0.965  -0.202  1.00  0.00    +0.000 F 
ATOM     67  F18 UNL A   1      -1.293  -0.610   1.226  1.00  0.00    +0.000 F 
ATOM     68  O13 UNL A   1       1.036   1.379  -0.403  1.00  0.00    +0.000 O 
ATOM     69  C30 UNL A   1       0.550   0.293  -0.113  1.00  0.00    +0.000 C 
ATOM     70  O14 UNL A   1       1.382  -0.767   0.070  1.00  0.00    +0.000 O 
ATOM     71  C31 UNL A   1      -0.933  -0.038   0.083  1.00  0.00    +0.000 C 
ATOM     72  F19 UNL A   1      -1.205  -0.465   1.349  1.00  0.00    +0.000 F 
ATOM     73  F20 UNL A   1      -1.358  -1.027  -0.754  1.00  0.00    +0.000 F 
ATOM     74  F21 UNL A   1      -1.750   1.028  -0.143  1.00  0.00    +0.000 F 
ATOM     75  O15 UNL A   1       1.036   1.406  -0.277  1.00  0.00    +0.000 O 
ATOM     76  C32 UNL A   1       0.551   0.301  -0.073  1.00  0.00    +0.000 C 
ATOM     77  O16 UNL A   1       1.389  -0.745   0.155  1.00  0.00    +0.000 O 
ATOM     78  C33 UNL A   1      -0.936  -0.059   0.003  1.00  0.00    +0.000 C 
ATOM     79  F22 UNL A   1      -1.220  -1.254  -0.589  1.00  0.00    +0.000 F 
ATOM     80  F23 UNL A   1      -1.733   0.864  -0.605  1.00  0.00    +0.000 F 
ATOM     81  F24 UNL A   1      -1.376  -0.156   1.290  1.00  0.00    +0.000 F 
ATOM     88  H7  UNL A   1      -2.464  -1.112   1.629  1.00  0.00    +0.000 H 
ATOM     89  H8  UNL A   1      -4.319  -1.463   3.223  1.00  0.00    +0.000 H 
ATOM     90  H9  UNL A   1      -6.540  -0.444   2.794  1.00  0.00    +0.000 H 
ATOM     91  H10 UNL A   1      -6.899   0.945   0.770  1.00  0.00    +0.000 H 
ATOM     92  H11 UNL A   1      -5.059   1.317  -0.823  1.00  0.00    +0.000 H 
ATOM     93  H12 UNL A   1      -3.485   0.883  -2.619  1.00  0.00    +0.000 H 
ATOM     96  H15 UNL A   1       2.182  -0.718  -0.301  1.00  0.00    +0.000 H 
ATOM     97  H16 UNL A   1       2.240  -0.311   0.511  1.00  0.00    +0.000 H 
ATOM     98  H17 UNL A   1       2.260  -0.394   0.323  1.00  0.00    +0.000 H 
ATOM     99  H18 UNL A   1       2.215  -0.419   0.533  1.00  0.00    +0.000 H 
ATOM    100  H19 UNL A   1       2.268  -0.463  -0.092  1.00  0.00    +0.000 H 
ATOM    101  H20 UNL A   1       2.295  -0.310  -0.082  1.00  0.00    +0.000 H 
ATOM    102  H21 UNL A   1       2.279  -0.404  -0.088  1.00  0.00    +0.000 H 
ATOM    103  H22 UNL A   1       2.288  -0.358   0.095  1.00  0.00    +0.000 H 
ENDROOT
BRANCH    2    1
ATOM      1  N1  UNL A   1       3.698   0.915  -3.493  1.00  0.00    +0.000 N 
ATOM     82  H1  UNL A   1       3.224   1.606  -4.057  1.00  0.00    +0.000 H 
ATOM     83  H2  UNL A   1       4.641   1.140  -3.203  1.00  0.00    +0.000 H 
ENDBRANCH    2    1
BRANCH    4    5
ATOM      5  C3  UNL A   1       3.541  -0.476   1.021  1.00  0.00    +0.000 C 
ATOM      6  C4  UNL A   1       2.843  -0.629   2.226  1.00  0.00    +0.000 C 
ATOM      7  C5  UNL A   1       3.531  -0.995   3.381  1.00  0.00    +0.000 C 
ATOM      8  C6  UNL A   1       4.901  -1.210   3.317  1.00  0.00    +0.000 C 
ATOM      9  C7  UNL A   1       5.529  -1.049   2.094  1.00  0.00    +0.000 C 
ATOM     10  N3  UNL A   1       4.889  -0.687   0.961  1.00  0.00    +0.000 N 
ATOM     84  H3  UNL A   1       1.768  -0.460   2.269  1.00  0.00    +0.000 H 
ATOM     85  H4  UNL A   1       3.000  -1.110   4.323  1.00  0.00    +0.000 H 
ATOM     86  H5  UNL A   1       5.467  -1.497   4.196  1.00  0.00    +0.000 H 
ATOM     87  H6  UNL A   1       6.599  -1.210   1.989  1.00  0.00    +0.000 H 
ENDBRANCH    4    5
BRANCH   23   24
ATOM     94  H13 UNL A   1       0.145   1.019  -3.956  1.00  0.00    +0.000 H 
ATOM     95  H14 UNL A   1      -1.467   1.198  -4.532  1.00  0.00    +0.000 H 
ATOM     24  N7  UNL A   1      -0.853   1.064  -3.733  1.00  0.00    +0.000 N 
ENDBRANCH   23   24
TORSDOF 3