MODEL 1
REMARK VINA RESULT:   -19.731      0.000      0.000
REMARK INTER + INTRA:         -19.084
REMARK INTER:                 -20.885
REMARK INTRA:                   1.800
REMARK UNBOUND:                 1.800
ROOT
ATOM      2  C1  UNL A   1      -3.034   2.601 -10.735  1.00  0.00    +0.000 C 
ATOM      3  N2  UNL A   1      -3.895   2.921  -9.791  1.00  0.00    +0.000 N 
ATOM      4  C2  UNL A   1      -3.604   2.481  -8.564  1.00  0.00    +0.000 C 
ATOM     11  N4  UNL A   1      -2.527   1.752  -8.271  1.00  0.00    +0.000 N 
ATOM     12  C8  UNL A   1      -1.715   1.480  -9.299  1.00  0.00    +0.000 C 
ATOM     13  N5  UNL A   1      -0.528   0.708  -9.028  1.00  0.00    +0.000 N 
ATOM     14  N6  UNL A   1      -0.258   0.248  -7.770  1.00  0.00    +0.000 N 
ATOM     15  C9  UNL A   1       0.892  -0.436  -7.872  1.00  0.00    +0.000 C 
ATOM     16  C10 UNL A   1       1.493  -1.097  -6.708  1.00  0.00    +0.000 C 
ATOM     17  C11 UNL A   1       1.149  -0.695  -5.407  1.00  0.00    +0.000 C 
ATOM     18  C12 UNL A   1       1.721  -1.316  -4.293  1.00  0.00    +0.000 C 
ATOM     19  C13 UNL A   1       2.643  -2.346  -4.465  1.00  0.00    +0.000 C 
ATOM     20  C14 UNL A   1       2.989  -2.761  -5.750  1.00  0.00    +0.000 C 
ATOM     21  C15 UNL A   1       2.419  -2.140  -6.864  1.00  0.00    +0.000 C 
ATOM     22  C16 UNL A   1       1.384  -0.394  -9.201  1.00  0.00    +0.000 C 
ATOM     23  C17 UNL A   1       0.477   0.338  -9.927  1.00  0.00    +0.000 C 
ATOM     25  N8  UNL A   1      -1.941   1.877 -10.560  1.00  0.00    +0.000 N 
ATOM     26  O1  UNL A   1      -2.453   0.722  -9.109  1.00  0.00    +0.000 O 
ATOM     27  C18 UNL A   1      -1.814   1.087  -8.129  1.00  0.00    +0.000 C 
ATOM     28  O2  UNL A   1      -2.067   2.317  -7.609  1.00  0.00    +0.000 O 
ATOM     29  C19 UNL A   1      -0.714   0.312  -7.395  1.00  0.00    +0.000 C 
ATOM     30  F1  UNL A   1      -0.977   0.180  -6.064  1.00  0.00    +0.000 F 
ATOM     31  F2  UNL A   1       0.500   0.926  -7.486  1.00  0.00    +0.000 F 
ATOM     32  F3  UNL A   1      -0.542  -0.950  -7.878  1.00  0.00    +0.000 F 
ATOM     33  O3  UNL A   1      -2.787   0.178  -8.467  1.00  0.00    +0.000 O 
ATOM     34  C20 UNL A   1      -1.958   0.895  -7.922  1.00  0.00    +0.000 C 
ATOM     35  O4  UNL A   1      -2.356   2.105  -7.450  1.00  0.00    +0.000 O 
ATOM     36  C21 UNL A   1      -0.484   0.571  -7.656  1.00  0.00    +0.000 C 
ATOM     37  F4  UNL A   1      -0.275   0.158  -6.373  1.00  0.00    +0.000 F 
ATOM     38  F5  UNL A   1      -0.009  -0.423  -8.459  1.00  0.00    +0.000 F 
ATOM     39  F6  UNL A   1       0.336   1.642  -7.852  1.00  0.00    +0.000 F 
ATOM     40  O5  UNL A   1      -2.728   0.342  -8.696  1.00  0.00    +0.000 O 
ATOM     41  C22 UNL A   1      -1.930   0.952  -7.992  1.00  0.00    +0.000 C 
ATOM     42  O6  UNL A   1      -2.306   2.147  -7.469  1.00  0.00    +0.000 O 
ATOM     43  C23 UNL A   1      -0.524   0.503  -7.581  1.00  0.00    +0.000 C 
ATOM     44  F7  UNL A   1       0.398   1.501  -7.690  1.00  0.00    +0.000 F 
ATOM     45  F8  UNL A   1      -0.481   0.080  -6.286  1.00  0.00    +0.000 F 
ATOM     46  F9  UNL A   1      -0.055  -0.530  -8.336  1.00  0.00    +0.000 F 
ATOM     47  O7  UNL A   1      -2.540   0.728  -9.034  1.00  0.00    +0.000 O 
ATOM     48  C24 UNL A   1      -1.889   1.039  -8.043  1.00  0.00    +0.000 C 
ATOM     49  O8  UNL A   1      -2.401   1.970  -7.196  1.00  0.00    +0.000 O 
ATOM     50  C25 UNL A   1      -0.534   0.475  -7.609  1.00  0.00    +0.000 C 
ATOM     51  F10 UNL A   1      -0.640  -0.332  -6.515  1.00  0.00    +0.000 F 
ATOM     52  F11 UNL A   1       0.065  -0.273  -8.578  1.00  0.00    +0.000 F 
ATOM     53  F12 UNL A   1       0.357   1.451  -7.277  1.00  0.00    +0.000 F 
ATOM     54  O9  UNL A   1      -2.378   0.630  -9.149  1.00  0.00    +0.000 O 
ATOM     55  C26 UNL A   1      -1.817   1.046  -8.142  1.00  0.00    +0.000 C 
ATOM     56  O10 UNL A   1      -2.280   2.185  -7.563  1.00  0.00    +0.000 O 
ATOM     57  C27 UNL A   1      -0.635   0.403  -7.406  1.00  0.00    +0.000 C 
ATOM     58  F13 UNL A   1      -1.024  -0.211  -6.254  1.00  0.00    +0.000 F 
ATOM     59  F14 UNL A   1       0.319   1.311  -7.053  1.00  0.00    +0.000 F 
ATOM     60  F15 UNL A   1      -0.002  -0.546  -8.151  1.00  0.00    +0.000 F 
ATOM     61  O11 UNL A   1      -2.751   0.214  -8.569  1.00  0.00    +0.000 O 
ATOM     62  C28 UNL A   1      -1.923   0.924  -8.010  1.00  0.00    +0.000 C 
ATOM     63  O12 UNL A   1      -2.217   2.235  -7.811  1.00  0.00    +0.000 O 
ATOM     64  C29 UNL A   1      -0.558   0.498  -7.459  1.00  0.00    +0.000 C 
ATOM     65  F16 UNL A   1       0.436   1.373  -7.782  1.00  0.00    +0.000 F 
ATOM     66  F17 UNL A   1      -0.156  -0.719  -7.922  1.00  0.00    +0.000 F 
ATOM     67  F18 UNL A   1      -0.561   0.407  -6.099  1.00  0.00    +0.000 F 
ATOM     68  O13 UNL A   1      -2.564   0.424  -8.932  1.00  0.00    +0.000 O 
ATOM     69  C30 UNL A   1      -1.875   0.981  -8.087  1.00  0.00    +0.000 C 
ATOM     70  O14 UNL A   1      -2.246   2.215  -7.651  1.00  0.00    +0.000 O 
ATOM     71  C31 UNL A   1      -0.601   0.445  -7.426  1.00  0.00    +0.000 C 
ATOM     72  F19 UNL A   1      -0.740   0.298  -6.078  1.00  0.00    +0.000 F 
ATOM     73  F20 UNL A   1       0.467   1.272  -7.613  1.00  0.00    +0.000 F 
ATOM     74  F21 UNL A   1      -0.226  -0.774  -7.905  1.00  0.00    +0.000 F 
ATOM     75  O15 UNL A   1      -2.626   0.367  -8.835  1.00  0.00    +0.000 O 
ATOM     76  C32 UNL A   1      -1.895   0.964  -8.056  1.00  0.00    +0.000 C 
ATOM     77  O16 UNL A   1      -2.296   2.177  -7.589  1.00  0.00    +0.000 O 
ATOM     78  C33 UNL A   1      -0.557   0.483  -7.485  1.00  0.00    +0.000 C 
ATOM     79  F22 UNL A   1       0.369   1.480  -7.402  1.00  0.00    +0.000 F 
ATOM     80  F23 UNL A   1       0.012  -0.501  -8.236  1.00  0.00    +0.000 F 
ATOM     81  F24 UNL A   1      -0.688  -0.024  -6.226  1.00  0.00    +0.000 F 
ATOM     88  H7  UNL A   1       0.432   0.109  -5.256  1.00  0.00    +0.000 H 
ATOM     89  H8  UNL A   1       1.444  -0.994  -3.290  1.00  0.00    +0.000 H 
ATOM     90  H9  UNL A   1       3.086  -2.828  -3.599  1.00  0.00    +0.000 H 
ATOM     91  H10 UNL A   1       3.703  -3.571  -5.884  1.00  0.00    +0.000 H 
ATOM     92  H11 UNL A   1       2.696  -2.493  -7.854  1.00  0.00    +0.000 H 
ATOM     93  H12 UNL A   1       2.293  -0.836  -9.582  1.00  0.00    +0.000 H 
ATOM     96  H15 UNL A   1      -2.776   2.685  -8.179  1.00  0.00    +0.000 H 
ATOM     97  H16 UNL A   1      -3.311   2.153  -7.671  1.00  0.00    +0.000 H 
ATOM     98  H17 UNL A   1      -3.219   2.284  -7.801  1.00  0.00    +0.000 H 
ATOM     99  H18 UNL A   1      -3.260   2.223  -7.598  1.00  0.00    +0.000 H 
ATOM    100  H19 UNL A   1      -3.029   2.461  -8.132  1.00  0.00    +0.000 H 
ATOM    101  H20 UNL A   1      -3.112   2.348  -8.197  1.00  0.00    +0.000 H 
ATOM    102  H21 UNL A   1      -3.061   2.418  -8.157  1.00  0.00    +0.000 H 
ATOM    103  H22 UNL A   1      -3.162   2.333  -8.021  1.00  0.00    +0.000 H 
ENDROOT
BRANCH    2    1
ATOM      1  N1  UNL A   1      -3.323   3.022 -12.019  1.00  0.00    +0.000 N 
ATOM     82  H1  UNL A   1      -4.275   2.795 -12.269  1.00  0.00    +0.000 H 
ATOM     83  H2  UNL A   1      -3.048   3.990 -12.123  1.00  0.00    +0.000 H 
ENDBRANCH    2    1
BRANCH    4    5
ATOM      5  C3  UNL A   1      -4.542   2.803  -7.458  1.00  0.00    +0.000 C 
ATOM      6  C4  UNL A   1      -4.342   3.907  -6.619  1.00  0.00    +0.000 C 
ATOM      7  C5  UNL A   1      -5.241   4.160  -5.585  1.00  0.00    +0.000 C 
ATOM      8  C6  UNL A   1      -6.329   3.315  -5.408  1.00  0.00    +0.000 C 
ATOM      9  C7  UNL A   1      -6.471   2.247  -6.275  1.00  0.00    +0.000 C 
ATOM     10  N3  UNL A   1      -5.611   1.972  -7.280  1.00  0.00    +0.000 N 
ATOM     84  H3  UNL A   1      -3.488   4.566  -6.765  1.00  0.00    +0.000 H 
ATOM     85  H4  UNL A   1      -5.092   5.011  -4.924  1.00  0.00    +0.000 H 
ATOM     86  H5  UNL A   1      -7.048   3.484  -4.614  1.00  0.00    +0.000 H 
ATOM     87  H6  UNL A   1      -7.308   1.558  -6.182  1.00  0.00    +0.000 H 
ENDBRANCH    4    5
BRANCH   23   24
ATOM     94  H13 UNL A   1      -0.347   0.608 -11.808  1.00  0.00    +0.000 H 
ATOM     95  H14 UNL A   1       1.291   1.120 -11.684  1.00  0.00    +0.000 H 
ATOM     24  N7  UNL A   1       0.501   0.664 -11.237  1.00  0.00    +0.000 N 
ENDBRANCH   23   24
TORSDOF 3
ENDMDL
